Flow Title=white-river-ss
Program Version=4.10
Number of Profiles= 1 
Profile Names=PF 1
River Rch & RM=WhiteRiver,SilverFalls     ,321     
    1900
Boundary for River Rch & Prof#=WhiteRiver,SilverFalls     , 1 
Up Type= 2 
Dn Type= 2 
DSS Import StartDate=
DSS Import StartTime=
DSS Import EndDate=
DSS Import EndTime=
DSS Import GetInterval= 0 
DSS Import Interval=
DSS Import GetPeak= 0 
DSS Import FillOption= 0 
